/*--------------------------------*- C++ -*----------------------------------*\
| =========                 |                                                 |
| \\      /  F ield         | OpenFOAM: The Open Source CFD Toolbox           |
|  \\    /   O peration     | Version:                                        |
|   \\  /    A nd           | Website:  www.openfoam.com                      |
|    \\/     M anipulation  |                                                 |
\*---------------------------------------------------------------------------*/
FoamFile
{
    version     2.0;
    format      ascii;
    class       extendedFeatureEdgeMesh;
    location    "constant/extendedFeatureEdgeMesh";
    object      screw.extendedFeatureEdgeMesh;
}
// * * * * * * * * * * * * * * * * * * * * * * * * * * * * * * * * * * * * * //

// points

800
(
(0.04 0 0.0025)
(0.08 0 0.0025)
(0.04 0 -0.0025)
(0.08 0 -0.0025)
(0.04 -0 0.5025)
(0.08 -0 0.5025)
(0.04 -0 0.4975)
(0.08 -0 0.4975)
(0.038731 0.009997 0.005013)
(0.077461 0.019993 0.005013)
(0.038731 0.009997 1.3e-05)
(0.077461 0.019993 1.3e-05)
(0.035003 0.019359 0.007525)
(0.070007 0.038717 0.007525)
(0.035003 0.019359 0.002525)
(0.070007 0.038717 0.002525)
(0.029055 0.027492 0.010038)
(0.05811 0.054984 0.010038)
(0.029055 0.027492 0.005038)
(0.05811 0.054984 0.005038)
(0.021262 0.033881 0.01255)
(0.042524 0.067762 0.01255)
(0.021262 0.033881 0.00755)
(0.042524 0.067762 0.00755)
(0.01212 0.03812 0.015063)
(0.02424 0.076239 0.015063)
(0.01212 0.03812 0.010063)
(0.02424 0.076239 0.010063)
(0.002209 0.039939 0.017575)
(0.004418 0.079878 0.017575)
(0.002209 0.039939 0.012575)
(0.004418 0.079878 0.012575)
(-0.007842 0.039224 0.020088)
(-0.015685 0.078447 0.020088)
(-0.007842 0.039224 0.015088)
(-0.015685 0.078447 0.015088)
(-0.017396 0.036019 0.022601)
(-0.034792 0.072038 0.022601)
(-0.017396 0.036019 0.017601)
(-0.034792 0.072038 0.017601)
(-0.025846 0.030529 0.025113)
(-0.051691 0.061057 0.025113)
(-0.025846 0.030529 0.020113)
(-0.051691 0.061057 0.020113)
(-0.032655 0.023101 0.027626)
(-0.06531 0.046202 0.027626)
(-0.032655 0.023101 0.022626)
(-0.06531 0.046202 0.022626)
(-0.037392 0.014207 0.030138)
(-0.074784 0.028414 0.030138)
(-0.037392 0.014207 0.025138)
(-0.074784 0.028414 0.025138)
(-0.039756 0.004411 0.032651)
(-0.079512 0.008823 0.032651)
(-0.039756 0.004411 0.027651)
(-0.079512 0.008823 0.027651)
(-0.039597 -0.005664 0.035163)
(-0.079194 -0.011328 0.035163)
(-0.039597 -0.005664 0.030163)
(-0.079194 -0.011328 0.030163)
(-0.036925 -0.01538 0.037676)
(-0.07385 -0.03076 0.037676)
(-0.036925 -0.01538 0.032676)
(-0.07385 -0.03076 0.032676)
(-0.031909 -0.02412 0.040188)
(-0.063819 -0.04824 0.040188)
(-0.031909 -0.02412 0.035188)
(-0.063819 -0.04824 0.035188)
(-0.024869 -0.031329 0.042701)
(-0.049738 -0.062659 0.042701)
(-0.024869 -0.031329 0.037701)
(-0.049738 -0.062659 0.037701)
(-0.01625 -0.03655 0.045214)
(-0.0325 -0.073101 0.045214)
(-0.01625 -0.03655 0.040214)
(-0.0325 -0.073101 0.040214)
(-0.0066 -0.039452 0.047726)
(-0.0132 -0.078903 0.047726)
(-0.0066 -0.039452 0.042726)
(-0.0132 -0.078903 0.042726)
(0.003469 -0.039849 0.050239)
(0.006938 -0.079699 0.050239)
(0.003469 -0.039849 0.045239)
(0.006938 -0.079699 0.045239)
(0.013318 -0.037718 0.052751)
(0.026635 -0.075436 0.052751)
(0.013318 -0.037718 0.047751)
(0.026635 -0.075436 0.047751)
(0.022321 -0.033193 0.055264)
(0.044642 -0.066386 0.055264)
(0.022321 -0.033193 0.050264)
(0.044642 -0.066386 0.050264)
(0.029908 -0.026561 0.057776)
(0.059816 -0.053122 0.057776)
(0.029908 -0.026561 0.052776)
(0.059816 -0.053122 0.052776)
(0.035597 -0.018244 0.060289)
(0.071194 -0.036488 0.060289)
(0.035597 -0.018244 0.055289)
(0.071194 -0.036488 0.055289)
(0.039027 -0.008769 0.062802)
(0.078054 -0.017538 0.062802)
(0.039027 -0.008769 0.057802)
(0.078054 -0.017538 0.057802)
(0.03998 0.001263 0.065314)
(0.07996 0.002525 0.065314)
(0.03998 0.001263 0.060314)
(0.07996 0.002525 0.060314)
(0.038396 0.011214 0.067827)
(0.076792 0.022428 0.067827)
(0.038396 0.011214 0.062827)
(0.076792 0.022428 0.062827)
(0.034375 0.020454 0.070339)
(0.06875 0.040908 0.070339)
(0.034375 0.020454 0.065339)
(0.06875 0.040908 0.065339)
(0.028172 0.028396 0.072852)
(0.056345 0.056791 0.072852)
(0.028172 0.028396 0.067852)
(0.056345 0.056791 0.067852)
(0.020182 0.034535 0.075364)
(0.040364 0.069071 0.075364)
(0.020182 0.034535 0.070364)
(0.040364 0.069071 0.070364)
(0.010911 0.038483 0.077877)
(0.021822 0.076966 0.077877)
(0.010911 0.038483 0.072877)
(0.021822 0.076966 0.072877)
(0.000947 0.039989 0.080389)
(0.001894 0.079978 0.080389)
(0.000947 0.039989 0.075389)
(0.001894 0.079978 0.075389)
(-0.009077 0.038957 0.082902)
(-0.018153 0.077913 0.082902)
(-0.009077 0.038957 0.077902)
(-0.018153 0.077913 0.077902)
(-0.018524 0.035452 0.085415)
(-0.037049 0.070904 0.085415)
(-0.018524 0.035452 0.080415)
(-0.037049 0.070904 0.080415)
(-0.026796 0.029698 0.087927)
(-0.053593 0.059395 0.087927)
(-0.026796 0.029698 0.082927)
(-0.053593 0.059395 0.082927)
(-0.033368 0.022058 0.09044)
(-0.066736 0.044117 0.09044)
(-0.033368 0.022058 0.08544)
(-0.066736 0.044117 0.08544)
(-0.037822 0.013019 0.092952)
(-0.075644 0.026039 0.092952)
(-0.037822 0.013019 0.087952)
(-0.075644 0.026039 0.087952)
(-0.039875 0.003154 0.095465)
(-0.079751 0.006308 0.095465)
(-0.039875 0.003154 0.090465)
(-0.079751 0.006308 0.090465)
(-0.039398 -0.006911 0.097977)
(-0.078797 -0.013823 0.097977)
(-0.039398 -0.006911 0.092977)
(-0.078797 -0.013823 0.092977)
(-0.036421 -0.016538 0.10049)
(-0.072842 -0.033076 0.10049)
(-0.036421 -0.016538 0.09549)
(-0.072842 -0.033076 0.09549)
(-0.031132 -0.025116 0.103003)
(-0.062264 -0.050231 0.103003)
(-0.031132 -0.025116 0.098003)
(-0.062264 -0.050231 0.098003)
(-0.023868 -0.032099 0.105515)
(-0.047735 -0.064198 0.105515)
(-0.023868 -0.032099 0.100515)
(-0.047735 -0.064198 0.100515)
(-0.015088 -0.037045 0.108028)
(-0.030177 -0.07409 0.108028)
(-0.015088 -0.037045 0.103028)
(-0.030177 -0.07409 0.103028)
(-0.005351 -0.03964 0.11054)
(-0.010703 -0.079281 0.11054)
(-0.005351 -0.03964 0.10554)
(-0.010703 -0.079281 0.10554)
(0.004725 -0.03972 0.113053)
(0.00945 -0.07944 0.113053)
(0.004725 -0.03972 0.108053)
(0.00945 -0.07944 0.108053)
(0.014502 -0.037279 0.115565)
(0.029003 -0.074557 0.115565)
(0.014502 -0.037279 0.110565)
(0.029003 -0.074557 0.110565)
(0.023358 -0.032472 0.118078)
(0.046716 -0.064943 0.118078)
(0.023358 -0.032472 0.113078)
(0.046716 -0.064943 0.113078)
(0.030732 -0.025604 0.12059)
(0.061464 -0.051208 0.12059)
(0.030732 -0.025604 0.11559)
(0.061464 -0.051208 0.11559)
(0.036155 -0.017111 0.123103)
(0.072311 -0.034222 0.123103)
(0.036155 -0.017111 0.118103)
(0.072311 -0.034222 0.118103)
(0.039284 -0.007532 0.125616)
(0.078569 -0.015065 0.125616)
(0.039284 -0.007532 0.120616)
(0.078569 -0.015065 0.120616)
(0.03992 0.002524 0.128128)
(0.079841 0.005048 0.128128)
(0.03992 0.002524 0.123128)
(0.079841 0.005048 0.123128)
(0.038023 0.012421 0.130641)
(0.076045 0.024841 0.130641)
(0.038023 0.012421 0.125641)
(0.076045 0.024841 0.125641)
(0.033712 0.021529 0.133153)
(0.067424 0.043058 0.133153)
(0.033712 0.021529 0.128153)
(0.067424 0.043058 0.128153)
(0.027262 0.029271 0.135666)
(0.054524 0.058542 0.135666)
(0.027262 0.029271 0.130666)
(0.054524 0.058542 0.130666)
(0.019082 0.035155 0.138178)
(0.038163 0.07031 0.138178)
(0.019082 0.035155 0.133178)
(0.038163 0.07031 0.133178)
(0.00969 0.038808 0.140691)
(0.019381 0.077617 0.140691)
(0.00969 0.038808 0.135691)
(0.019381 0.077617 0.135691)
(-0.000316 0.039999 0.143204)
(-0.000631 0.079998 0.143204)
(-0.000316 0.039999 0.138204)
(-0.000631 0.079998 0.138204)
(-0.010302 0.038651 0.145716)
(-0.020604 0.077301 0.145716)
(-0.010302 0.038651 0.140716)
(-0.020604 0.077301 0.140716)
(-0.019634 0.03485 0.148229)
(-0.039269 0.069699 0.148229)
(-0.019634 0.03485 0.143229)
(-0.039269 0.069699 0.143229)
(-0.027721 0.028837 0.150741)
(-0.055441 0.057674 0.150741)
(-0.027721 0.028837 0.145741)
(-0.055441 0.057674 0.145741)
(-0.034048 0.020994 0.153254)
(-0.068095 0.041988 0.153254)
(-0.034048 0.020994 0.148254)
(-0.068095 0.041988 0.148254)
(-0.038214 0.011819 0.155766)
(-0.076428 0.023638 0.155766)
(-0.038214 0.011819 0.150766)
(-0.076428 0.023638 0.150766)
(-0.039955 0.001894 0.158279)
(-0.07991 0.003787 0.158279)
(-0.039955 0.001894 0.153279)
(-0.07991 0.003787 0.153279)
(-0.039161 -0.008152 0.160791)
(-0.078321 -0.016303 0.160791)
(-0.039161 -0.008152 0.155791)
(-0.078321 -0.016303 0.155791)
(-0.035881 -0.01768 0.163304)
(-0.071761 -0.035359 0.163304)
(-0.035881 -0.01768 0.158304)
(-0.071761 -0.035359 0.158304)
(-0.030324 -0.026086 0.165817)
(-0.060648 -0.052172 0.165817)
(-0.030324 -0.026086 0.160817)
(-0.060648 -0.052172 0.160817)
(-0.022842 -0.032836 0.168329)
(-0.045685 -0.065673 0.168329)
(-0.022842 -0.032836 0.163329)
(-0.045685 -0.065673 0.163329)
(-0.013911 -0.037503 0.170842)
(-0.027823 -0.075006 0.170842)
(-0.013911 -0.037503 0.165842)
(-0.027823 -0.075006 0.165842)
(-0.004097 -0.03979 0.173354)
(-0.008195 -0.079579 0.173354)
(-0.004097 -0.03979 0.168354)
(-0.008195 -0.079579 0.168354)
(0.005977 -0.039551 0.175867)
(0.011953 -0.079102 0.175867)
(0.005977 -0.039551 0.170867)
(0.011953 -0.079102 0.170867)
(0.015671 -0.036802 0.178379)
(0.031342 -0.073605 0.178379)
(0.015671 -0.036802 0.173379)
(0.031342 -0.073605 0.173379)
(0.024371 -0.031718 0.180892)
(0.048743 -0.063436 0.180892)
(0.024371 -0.031718 0.175892)
(0.048743 -0.063436 0.175892)
(0.031525 -0.024621 0.183405)
(0.063049 -0.049242 0.183405)
(0.031525 -0.024621 0.178405)
(0.063049 -0.049242 0.178405)
(0.036678 -0.015961 0.185917)
(0.073355 -0.031922 0.185917)
(0.036678 -0.015961 0.180917)
(0.073355 -0.031922 0.180917)
(0.039503 -0.006289 0.18843)
(0.079005 -0.012577 0.18843)
(0.039503 -0.006289 0.18343)
(0.079005 -0.012577 0.18343)
(0.039821 0.003783 0.190942)
(0.079641 0.007566 0.190942)
(0.039821 0.003783 0.185942)
(0.079641 0.007566 0.185942)
(0.037612 0.013615 0.193455)
(0.075223 0.02723 0.193455)
(0.037612 0.013615 0.188455)
(0.075223 0.02723 0.188455)
(0.033016 0.022582 0.195967)
(0.066031 0.045165 0.195967)
(0.033016 0.022582 0.190967)
(0.066031 0.045165 0.190967)
(0.026324 0.030117 0.19848)
(0.052649 0.060234 0.19848)
(0.026324 0.030117 0.19348)
(0.052649 0.060234 0.19348)
(0.017962 0.03574 0.200992)
(0.035925 0.07148 0.200992)
(0.017962 0.03574 0.195992)
(0.035925 0.07148 0.195992)
(0.008461 0.039095 0.203505)
(0.016921 0.07819 0.203505)
(0.008461 0.039095 0.198505)
(0.016921 0.07819 0.198505)
(-0.001578 0.039969 0.206018)
(-0.003157 0.079938 0.206018)
(-0.001578 0.039969 0.201018)
(-0.003157 0.079938 0.201018)
(-0.011517 0.038306 0.20853)
(-0.023034 0.076612 0.20853)
(-0.011517 0.038306 0.20353)
(-0.023034 0.076612 0.20353)
(-0.020725 0.034212 0.211043)
(-0.041449 0.068425 0.211043)
(-0.020725 0.034212 0.206043)
(-0.041449 0.068425 0.206043)
(-0.028617 0.027947 0.213555)
(-0.057234 0.055895 0.213555)
(-0.028617 0.027947 0.208555)
(-0.057234 0.055895 0.208555)
(-0.034694 0.019909 0.216068)
(-0.069387 0.039818 0.216068)
(-0.034694 0.019909 0.211068)
(-0.069387 0.039818 0.211068)
(-0.038568 0.010607 0.21858)
(-0.077136 0.021213 0.21858)
(-0.038568 0.010607 0.21358)
(-0.077136 0.021213 0.21358)
(-0.039995 0.000631 0.221093)
(-0.07999 0.001263 0.221093)
(-0.039995 0.000631 0.216093)
(-0.07999 0.001263 0.216093)
(-0.038884 -0.009384 0.223606)
(-0.077767 -0.018768 0.223606)
(-0.038884 -0.009384 0.218606)
(-0.077767 -0.018768 0.218606)
(-0.035305 -0.018804 0.226118)
(-0.070609 -0.037607 0.226118)
(-0.035305 -0.018804 0.221118)
(-0.070609 -0.037607 0.221118)
(-0.029485 -0.02703 0.228631)
(-0.05897 -0.05406 0.228631)
(-0.029485 -0.02703 0.223631)
(-0.05897 -0.05406 0.223631)
(-0.021794 -0.033541 0.231143)
(-0.043589 -0.067082 0.231143)
(-0.021794 -0.033541 0.226143)
(-0.043589 -0.067082 0.226143)
(-0.01272 -0.037923 0.233656)
(-0.025441 -0.075847 0.233656)
(-0.01272 -0.037923 0.228656)
(-0.025441 -0.075847 0.228656)
(-0.002839 -0.039899 0.236168)
(-0.005679 -0.079798 0.236168)
(-0.002839 -0.039899 0.231168)
(-0.005679 -0.079798 0.231168)
(0.007222 -0.039343 0.238681)
(0.014444 -0.078685 0.238681)
(0.007222 -0.039343 0.233681)
(0.014444 -0.078685 0.233681)
(0.016825 -0.036289 0.241193)
(0.03365 -0.072579 0.241193)
(0.016825 -0.036289 0.236193)
(0.03365 -0.072579 0.236193)
(0.02536 -0.030933 0.243706)
(0.050721 -0.061866 0.243706)
(0.02536 -0.030933 0.238706)
(0.050721 -0.061866 0.238706)
(0.032286 -0.023613 0.246219)
(0.064573 -0.047227 0.246219)
(0.032286 -0.023613 0.241219)
(0.064573 -0.047227 0.241219)
(0.037163 -0.014795 0.248731)
(0.074326 -0.029591 0.248731)
(0.037163 -0.014795 0.243731)
(0.074326 -0.029591 0.243731)
(0.039681 -0.005038 0.251244)
(0.079363 -0.010077 0.251244)
(0.039681 -0.005038 0.246244)
(0.079363 -0.010077 0.246244)
(0.039681 0.005038 0.253756)
(0.079363 0.010077 0.253756)
(0.039681 0.005038 0.248756)
(0.079363 0.010077 0.248756)
(0.037163 0.014795 0.256269)
(0.074326 0.029591 0.256269)
(0.037163 0.014795 0.251269)
(0.074326 0.029591 0.251269)
(0.032286 0.023613 0.258781)
(0.064573 0.047227 0.258781)
(0.032286 0.023613 0.253781)
(0.064573 0.047227 0.253781)
(0.02536 0.030933 0.261294)
(0.050721 0.061866 0.261294)
(0.02536 0.030933 0.256294)
(0.050721 0.061866 0.256294)
(0.016825 0.036289 0.263807)
(0.03365 0.072579 0.263807)
(0.016825 0.036289 0.258807)
(0.03365 0.072579 0.258807)
(0.007222 0.039343 0.266319)
(0.014444 0.078685 0.266319)
(0.007222 0.039343 0.261319)
(0.014444 0.078685 0.261319)
(-0.002839 0.039899 0.268832)
(-0.005679 0.079798 0.268832)
(-0.002839 0.039899 0.263832)
(-0.005679 0.079798 0.263832)
(-0.01272 0.037923 0.271344)
(-0.025441 0.075847 0.271344)
(-0.01272 0.037923 0.266344)
(-0.025441 0.075847 0.266344)
(-0.021794 0.033541 0.273857)
(-0.043589 0.067082 0.273857)
(-0.021794 0.033541 0.268857)
(-0.043589 0.067082 0.268857)
(-0.029485 0.02703 0.276369)
(-0.05897 0.05406 0.276369)
(-0.029485 0.02703 0.271369)
(-0.05897 0.05406 0.271369)
(-0.035305 0.018804 0.278882)
(-0.070609 0.037607 0.278882)
(-0.035305 0.018804 0.273882)
(-0.070609 0.037607 0.273882)
(-0.038884 0.009384 0.281394)
(-0.077767 0.018768 0.281394)
(-0.038884 0.009384 0.276394)
(-0.077767 0.018768 0.276394)
(-0.039995 -0.000631 0.283907)
(-0.07999 -0.001263 0.283907)
(-0.039995 -0.000631 0.278907)
(-0.07999 -0.001263 0.278907)
(-0.038568 -0.010607 0.28642)
(-0.077136 -0.021213 0.28642)
(-0.038568 -0.010607 0.28142)
(-0.077136 -0.021213 0.28142)
(-0.034694 -0.019909 0.288932)
(-0.069387 -0.039818 0.288932)
(-0.034694 -0.019909 0.283932)
(-0.069387 -0.039818 0.283932)
(-0.028617 -0.027947 0.291445)
(-0.057234 -0.055895 0.291445)
(-0.028617 -0.027947 0.286445)
(-0.057234 -0.055895 0.286445)
(-0.020725 -0.034212 0.293957)
(-0.041449 -0.068425 0.293957)
(-0.020725 -0.034212 0.288957)
(-0.041449 -0.068425 0.288957)
(-0.011517 -0.038306 0.29647)
(-0.023034 -0.076612 0.29647)
(-0.011517 -0.038306 0.29147)
(-0.023034 -0.076612 0.29147)
(-0.001578 -0.039969 0.298982)
(-0.003157 -0.079938 0.298982)
(-0.001578 -0.039969 0.293982)
(-0.003157 -0.079938 0.293982)
(0.008461 -0.039095 0.301495)
(0.016921 -0.07819 0.301495)
(0.008461 -0.039095 0.296495)
(0.016921 -0.07819 0.296495)
(0.017962 -0.03574 0.304008)
(0.035925 -0.07148 0.304008)
(0.017962 -0.03574 0.299008)
(0.035925 -0.07148 0.299008)
(0.026324 -0.030117 0.30652)
(0.052649 -0.060234 0.30652)
(0.026324 -0.030117 0.30152)
(0.052649 -0.060234 0.30152)
(0.033016 -0.022582 0.309033)
(0.066031 -0.045165 0.309033)
(0.033016 -0.022582 0.304033)
(0.066031 -0.045165 0.304033)
(0.037612 -0.013615 0.311545)
(0.075223 -0.02723 0.311545)
(0.037612 -0.013615 0.306545)
(0.075223 -0.02723 0.306545)
(0.039821 -0.003783 0.314058)
(0.079641 -0.007566 0.314058)
(0.039821 -0.003783 0.309058)
(0.079641 -0.007566 0.309058)
(0.039503 0.006289 0.31657)
(0.079005 0.012577 0.31657)
(0.039503 0.006289 0.31157)
(0.079005 0.012577 0.31157)
(0.036678 0.015961 0.319083)
(0.073355 0.031922 0.319083)
(0.036678 0.015961 0.314083)
(0.073355 0.031922 0.314083)
(0.031525 0.024621 0.321595)
(0.063049 0.049242 0.321595)
(0.031525 0.024621 0.316595)
(0.063049 0.049242 0.316595)
(0.024371 0.031718 0.324108)
(0.048743 0.063436 0.324108)
(0.024371 0.031718 0.319108)
(0.048743 0.063436 0.319108)
(0.015671 0.036802 0.326621)
(0.031342 0.073605 0.326621)
(0.015671 0.036802 0.321621)
(0.031342 0.073605 0.321621)
(0.005977 0.039551 0.329133)
(0.011953 0.079102 0.329133)
(0.005977 0.039551 0.324133)
(0.011953 0.079102 0.324133)
(-0.004097 0.03979 0.331646)
(-0.008195 0.079579 0.331646)
(-0.004097 0.03979 0.326646)
(-0.008195 0.079579 0.326646)
(-0.013911 0.037503 0.334158)
(-0.027823 0.075006 0.334158)
(-0.013911 0.037503 0.329158)
(-0.027823 0.075006 0.329158)
(-0.022842 0.032836 0.336671)
(-0.045685 0.065673 0.336671)
(-0.022842 0.032836 0.331671)
(-0.045685 0.065673 0.331671)
(-0.030324 0.026086 0.339183)
(-0.060648 0.052172 0.339183)
(-0.030324 0.026086 0.334183)
(-0.060648 0.052172 0.334183)
(-0.035881 0.01768 0.341696)
(-0.071761 0.035359 0.341696)
(-0.035881 0.01768 0.336696)
(-0.071761 0.035359 0.336696)
(-0.039161 0.008152 0.344209)
(-0.078321 0.016303 0.344209)
(-0.039161 0.008152 0.339209)
(-0.078321 0.016303 0.339209)
(-0.039955 -0.001894 0.346721)
(-0.07991 -0.003787 0.346721)
(-0.039955 -0.001894 0.341721)
(-0.07991 -0.003787 0.341721)
(-0.038214 -0.011819 0.349234)
(-0.076428 -0.023638 0.349234)
(-0.038214 -0.011819 0.344234)
(-0.076428 -0.023638 0.344234)
(-0.034048 -0.020994 0.351746)
(-0.068095 -0.041988 0.351746)
(-0.034048 -0.020994 0.346746)
(-0.068095 -0.041988 0.346746)
(-0.027721 -0.028837 0.354259)
(-0.055441 -0.057674 0.354259)
(-0.027721 -0.028837 0.349259)
(-0.055441 -0.057674 0.349259)
(-0.019634 -0.03485 0.356771)
(-0.039269 -0.069699 0.356771)
(-0.019634 -0.03485 0.351771)
(-0.039269 -0.069699 0.351771)
(-0.010302 -0.038651 0.359284)
(-0.020604 -0.077301 0.359284)
(-0.010302 -0.038651 0.354284)
(-0.020604 -0.077301 0.354284)
(-0.000316 -0.039999 0.361796)
(-0.000631 -0.079998 0.361796)
(-0.000316 -0.039999 0.356796)
(-0.000631 -0.079998 0.356796)
(0.00969 -0.038808 0.364309)
(0.019381 -0.077617 0.364309)
(0.00969 -0.038808 0.359309)
(0.019381 -0.077617 0.359309)
(0.019082 -0.035155 0.366822)
(0.038163 -0.07031 0.366822)
(0.019082 -0.035155 0.361822)
(0.038163 -0.07031 0.361822)
(0.027262 -0.029271 0.369334)
(0.054524 -0.058542 0.369334)
(0.027262 -0.029271 0.364334)
(0.054524 -0.058542 0.364334)
(0.033712 -0.021529 0.371847)
(0.067424 -0.043058 0.371847)
(0.033712 -0.021529 0.366847)
(0.067424 -0.043058 0.366847)
(0.038023 -0.012421 0.374359)
(0.076045 -0.024841 0.374359)
(0.038023 -0.012421 0.369359)
(0.076045 -0.024841 0.369359)
(0.03992 -0.002524 0.376872)
(0.079841 -0.005048 0.376872)
(0.03992 -0.002524 0.371872)
(0.079841 -0.005048 0.371872)
(0.039284 0.007532 0.379384)
(0.078569 0.015065 0.379384)
(0.039284 0.007532 0.374384)
(0.078569 0.015065 0.374384)
(0.036155 0.017111 0.381897)
(0.072311 0.034222 0.381897)
(0.036155 0.017111 0.376897)
(0.072311 0.034222 0.376897)
(0.030732 0.025604 0.38441)
(0.061464 0.051208 0.38441)
(0.030732 0.025604 0.37941)
(0.061464 0.051208 0.37941)
(0.023358 0.032472 0.386922)
(0.046716 0.064943 0.386922)
(0.023358 0.032472 0.381922)
(0.046716 0.064943 0.381922)
(0.014502 0.037279 0.389435)
(0.029003 0.074557 0.389435)
(0.014502 0.037279 0.384435)
(0.029003 0.074557 0.384435)
(0.004725 0.03972 0.391947)
(0.00945 0.07944 0.391947)
(0.004725 0.03972 0.386947)
(0.00945 0.07944 0.386947)
(-0.005351 0.03964 0.39446)
(-0.010703 0.079281 0.39446)
(-0.005351 0.03964 0.38946)
(-0.010703 0.079281 0.38946)
(-0.015088 0.037045 0.396972)
(-0.030177 0.07409 0.396972)
(-0.015088 0.037045 0.391972)
(-0.030177 0.07409 0.391972)
(-0.023868 0.032099 0.399485)
(-0.047735 0.064198 0.399485)
(-0.023868 0.032099 0.394485)
(-0.047735 0.064198 0.394485)
(-0.031132 0.025116 0.401997)
(-0.062264 0.050231 0.401997)
(-0.031132 0.025116 0.396997)
(-0.062264 0.050231 0.396997)
(-0.036421 0.016538 0.40451)
(-0.072842 0.033076 0.40451)
(-0.036421 0.016538 0.39951)
(-0.072842 0.033076 0.39951)
(-0.039398 0.006911 0.407023)
(-0.078797 0.013823 0.407023)
(-0.039398 0.006911 0.402023)
(-0.078797 0.013823 0.402023)
(-0.039875 -0.003154 0.409535)
(-0.079751 -0.006308 0.409535)
(-0.039875 -0.003154 0.404535)
(-0.079751 -0.006308 0.404535)
(-0.037822 -0.013019 0.412048)
(-0.075644 -0.026039 0.412048)
(-0.037822 -0.013019 0.407048)
(-0.075644 -0.026039 0.407048)
(-0.033368 -0.022058 0.41456)
(-0.066736 -0.044117 0.41456)
(-0.033368 -0.022058 0.40956)
(-0.066736 -0.044117 0.40956)
(-0.026796 -0.029698 0.417073)
(-0.053593 -0.059395 0.417073)
(-0.026796 -0.029698 0.412073)
(-0.053593 -0.059395 0.412073)
(-0.018524 -0.035452 0.419585)
(-0.037049 -0.070904 0.419585)
(-0.018524 -0.035452 0.414585)
(-0.037049 -0.070904 0.414585)
(-0.009077 -0.038957 0.422098)
(-0.018153 -0.077913 0.422098)
(-0.009077 -0.038957 0.417098)
(-0.018153 -0.077913 0.417098)
(0.000947 -0.039989 0.424611)
(0.001894 -0.079978 0.424611)
(0.000947 -0.039989 0.419611)
(0.001894 -0.079978 0.419611)
(0.010911 -0.038483 0.427123)
(0.021822 -0.076966 0.427123)
(0.010911 -0.038483 0.422123)
(0.021822 -0.076966 0.422123)
(0.020182 -0.034535 0.429636)
(0.040364 -0.069071 0.429636)
(0.020182 -0.034535 0.424636)
(0.040364 -0.069071 0.424636)
(0.028172 -0.028396 0.432148)
(0.056345 -0.056791 0.432148)
(0.028172 -0.028396 0.427148)
(0.056345 -0.056791 0.427148)
(0.034375 -0.020454 0.434661)
(0.06875 -0.040908 0.434661)
(0.034375 -0.020454 0.429661)
(0.06875 -0.040908 0.429661)
(0.038396 -0.011214 0.437173)
(0.076792 -0.022428 0.437173)
(0.038396 -0.011214 0.432173)
(0.076792 -0.022428 0.432173)
(0.03998 -0.001263 0.439686)
(0.07996 -0.002525 0.439686)
(0.03998 -0.001263 0.434686)
(0.07996 -0.002525 0.434686)
(0.039027 0.008769 0.442198)
(0.078054 0.017538 0.442198)
(0.039027 0.008769 0.437198)
(0.078054 0.017538 0.437198)
(0.035597 0.018244 0.444711)
(0.071194 0.036488 0.444711)
(0.035597 0.018244 0.439711)
(0.071194 0.036488 0.439711)
(0.029908 0.026561 0.447224)
(0.059816 0.053122 0.447224)
(0.029908 0.026561 0.442224)
(0.059816 0.053122 0.442224)
(0.022321 0.033193 0.449736)
(0.044642 0.066386 0.449736)
(0.022321 0.033193 0.444736)
(0.044642 0.066386 0.444736)
(0.013318 0.037718 0.452249)
(0.026635 0.075436 0.452249)
(0.013318 0.037718 0.447249)
(0.026635 0.075436 0.447249)
(0.003469 0.039849 0.454761)
(0.006938 0.079699 0.454761)
(0.003469 0.039849 0.449761)
(0.006938 0.079699 0.449761)
(-0.0066 0.039452 0.457274)
(-0.0132 0.078903 0.457274)
(-0.0066 0.039452 0.452274)
(-0.0132 0.078903 0.452274)
(-0.01625 0.03655 0.459786)
(-0.0325 0.073101 0.459786)
(-0.01625 0.03655 0.454786)
(-0.0325 0.073101 0.454786)
(-0.024869 0.031329 0.462299)
(-0.049738 0.062659 0.462299)
(-0.024869 0.031329 0.457299)
(-0.049738 0.062659 0.457299)
(-0.031909 0.02412 0.464812)
(-0.063819 0.04824 0.464812)
(-0.031909 0.02412 0.459812)
(-0.063819 0.04824 0.459812)
(-0.036925 0.01538 0.467324)
(-0.07385 0.03076 0.467324)
(-0.036925 0.01538 0.462324)
(-0.07385 0.03076 0.462324)
(-0.039597 0.005664 0.469837)
(-0.079194 0.011328 0.469837)
(-0.039597 0.005664 0.464837)
(-0.079194 0.011328 0.464837)
(-0.039756 -0.004411 0.472349)
(-0.079512 -0.008823 0.472349)
(-0.039756 -0.004411 0.467349)
(-0.079512 -0.008823 0.467349)
(-0.037392 -0.014207 0.474862)
(-0.074784 -0.028414 0.474862)
(-0.037392 -0.014207 0.469862)
(-0.074784 -0.028414 0.469862)
(-0.032655 -0.023101 0.477374)
(-0.06531 -0.046202 0.477374)
(-0.032655 -0.023101 0.472374)
(-0.06531 -0.046202 0.472374)
(-0.025846 -0.030529 0.479887)
(-0.051691 -0.061057 0.479887)
(-0.025846 -0.030529 0.474887)
(-0.051691 -0.061057 0.474887)
(-0.017396 -0.036019 0.482399)
(-0.034792 -0.072038 0.482399)
(-0.017396 -0.036019 0.477399)
(-0.034792 -0.072038 0.477399)
(-0.007842 -0.039224 0.484912)
(-0.015685 -0.078447 0.484912)
(-0.007842 -0.039224 0.479912)
(-0.015685 -0.078447 0.479912)
(0.002209 -0.039939 0.487425)
(0.004418 -0.079878 0.487425)
(0.002209 -0.039939 0.482425)
(0.004418 -0.079878 0.482425)
(0.01212 -0.03812 0.489937)
(0.02424 -0.076239 0.489937)
(0.01212 -0.03812 0.484937)
(0.02424 -0.076239 0.484937)
(0.021262 -0.033881 0.49245)
(0.042524 -0.067762 0.49245)
(0.021262 -0.033881 0.48745)
(0.042524 -0.067762 0.48745)
(0.029055 -0.027492 0.494962)
(0.05811 -0.054984 0.494962)
(0.029055 -0.027492 0.489962)
(0.05811 -0.054984 0.489962)
(0.035003 -0.019359 0.497475)
(0.070007 -0.038717 0.497475)
(0.035003 -0.019359 0.492475)
(0.070007 -0.038717 0.492475)
(0.038731 -0.009997 0.499987)
(0.077461 -0.019993 0.499987)
(0.038731 -0.009997 0.494987)
(0.077461 -0.019993 0.494987)
)

// edges

804
(
(8 0)
(0 1)
(1 9)
(2 10)
(3 2)
(11 3)
(1 3)
(2 0)
(12 8)
(9 13)
(10 14)
(15 11)
(16 12)
(13 17)
(14 18)
(19 15)
(20 16)
(17 21)
(18 22)
(23 19)
(24 20)
(21 25)
(22 26)
(27 23)
(28 24)
(25 29)
(26 30)
(31 27)
(32 28)
(29 33)
(30 34)
(35 31)
(36 32)
(33 37)
(34 38)
(39 35)
(40 36)
(37 41)
(38 42)
(43 39)
(44 40)
(41 45)
(42 46)
(47 43)
(48 44)
(45 49)
(46 50)
(51 47)
(52 48)
(49 53)
(50 54)
(55 51)
(56 52)
(53 57)
(54 58)
(59 55)
(60 56)
(57 61)
(58 62)
(63 59)
(64 60)
(61 65)
(62 66)
(67 63)
(68 64)
(65 69)
(66 70)
(71 67)
(72 68)
(69 73)
(70 74)
(75 71)
(76 72)
(73 77)
(74 78)
(79 75)
(80 76)
(77 81)
(78 82)
(83 79)
(84 80)
(81 85)
(82 86)
(87 83)
(88 84)
(85 89)
(86 90)
(91 87)
(92 88)
(89 93)
(90 94)
(95 91)
(96 92)
(93 97)
(94 98)
(99 95)
(100 96)
(97 101)
(98 102)
(103 99)
(104 100)
(101 105)
(102 106)
(107 103)
(108 104)
(105 109)
(106 110)
(111 107)
(112 108)
(109 113)
(110 114)
(115 111)
(116 112)
(113 117)
(114 118)
(119 115)
(120 116)
(117 121)
(118 122)
(123 119)
(124 120)
(121 125)
(122 126)
(127 123)
(128 124)
(125 129)
(126 130)
(131 127)
(132 128)
(129 133)
(130 134)
(135 131)
(136 132)
(133 137)
(134 138)
(139 135)
(140 136)
(137 141)
(138 142)
(143 139)
(144 140)
(141 145)
(142 146)
(147 143)
(148 144)
(145 149)
(146 150)
(151 147)
(152 148)
(149 153)
(150 154)
(155 151)
(156 152)
(153 157)
(154 158)
(159 155)
(160 156)
(157 161)
(158 162)
(163 159)
(164 160)
(161 165)
(162 166)
(167 163)
(168 164)
(165 169)
(166 170)
(171 167)
(172 168)
(169 173)
(170 174)
(175 171)
(176 172)
(173 177)
(174 178)
(179 175)
(180 176)
(177 181)
(178 182)
(183 179)
(184 180)
(181 185)
(182 186)
(187 183)
(188 184)
(185 189)
(186 190)
(191 187)
(192 188)
(189 193)
(190 194)
(195 191)
(196 192)
(193 197)
(194 198)
(199 195)
(200 196)
(197 201)
(198 202)
(203 199)
(204 200)
(201 205)
(202 206)
(207 203)
(208 204)
(205 209)
(206 210)
(211 207)
(212 208)
(209 213)
(210 214)
(215 211)
(216 212)
(213 217)
(214 218)
(219 215)
(220 216)
(217 221)
(218 222)
(223 219)
(224 220)
(221 225)
(222 226)
(227 223)
(228 224)
(225 229)
(226 230)
(231 227)
(232 228)
(229 233)
(230 234)
(235 231)
(236 232)
(233 237)
(234 238)
(239 235)
(240 236)
(237 241)
(238 242)
(243 239)
(244 240)
(241 245)
(242 246)
(247 243)
(248 244)
(245 249)
(246 250)
(251 247)
(252 248)
(249 253)
(250 254)
(255 251)
(256 252)
(253 257)
(254 258)
(259 255)
(260 256)
(257 261)
(258 262)
(263 259)
(264 260)
(261 265)
(262 266)
(267 263)
(268 264)
(265 269)
(266 270)
(271 267)
(272 268)
(269 273)
(270 274)
(275 271)
(276 272)
(273 277)
(274 278)
(279 275)
(280 276)
(277 281)
(278 282)
(283 279)
(284 280)
(281 285)
(282 286)
(287 283)
(288 284)
(285 289)
(286 290)
(291 287)
(292 288)
(289 293)
(290 294)
(295 291)
(296 292)
(293 297)
(294 298)
(299 295)
(300 296)
(297 301)
(298 302)
(303 299)
(304 300)
(301 305)
(302 306)
(307 303)
(308 304)
(305 309)
(306 310)
(311 307)
(312 308)
(309 313)
(310 314)
(315 311)
(316 312)
(313 317)
(314 318)
(319 315)
(320 316)
(317 321)
(318 322)
(323 319)
(324 320)
(321 325)
(322 326)
(327 323)
(328 324)
(325 329)
(326 330)
(331 327)
(332 328)
(329 333)
(330 334)
(335 331)
(336 332)
(333 337)
(334 338)
(339 335)
(340 336)
(337 341)
(338 342)
(343 339)
(344 340)
(341 345)
(342 346)
(347 343)
(348 344)
(345 349)
(346 350)
(351 347)
(352 348)
(349 353)
(350 354)
(355 351)
(356 352)
(353 357)
(354 358)
(359 355)
(360 356)
(357 361)
(358 362)
(363 359)
(364 360)
(361 365)
(362 366)
(367 363)
(368 364)
(365 369)
(366 370)
(371 367)
(372 368)
(369 373)
(370 374)
(375 371)
(376 372)
(373 377)
(374 378)
(379 375)
(380 376)
(377 381)
(378 382)
(383 379)
(384 380)
(381 385)
(382 386)
(387 383)
(388 384)
(385 389)
(386 390)
(391 387)
(392 388)
(389 393)
(390 394)
(395 391)
(396 392)
(393 397)
(394 398)
(399 395)
(400 396)
(397 401)
(398 402)
(403 399)
(404 400)
(401 405)
(402 406)
(407 403)
(408 404)
(405 409)
(406 410)
(411 407)
(412 408)
(409 413)
(410 414)
(415 411)
(416 412)
(413 417)
(414 418)
(419 415)
(420 416)
(417 421)
(418 422)
(423 419)
(424 420)
(421 425)
(422 426)
(427 423)
(428 424)
(425 429)
(426 430)
(431 427)
(432 428)
(429 433)
(430 434)
(435 431)
(436 432)
(433 437)
(434 438)
(439 435)
(440 436)
(437 441)
(438 442)
(443 439)
(444 440)
(441 445)
(442 446)
(447 443)
(448 444)
(445 449)
(446 450)
(451 447)
(452 448)
(449 453)
(450 454)
(455 451)
(456 452)
(453 457)
(454 458)
(459 455)
(460 456)
(457 461)
(458 462)
(463 459)
(464 460)
(461 465)
(462 466)
(467 463)
(468 464)
(465 469)
(466 470)
(471 467)
(472 468)
(469 473)
(470 474)
(475 471)
(476 472)
(473 477)
(474 478)
(479 475)
(480 476)
(477 481)
(478 482)
(483 479)
(484 480)
(481 485)
(482 486)
(487 483)
(488 484)
(485 489)
(486 490)
(491 487)
(492 488)
(489 493)
(490 494)
(495 491)
(496 492)
(493 497)
(494 498)
(499 495)
(500 496)
(497 501)
(498 502)
(503 499)
(504 500)
(501 505)
(502 506)
(507 503)
(508 504)
(505 509)
(506 510)
(511 507)
(512 508)
(509 513)
(510 514)
(515 511)
(516 512)
(513 517)
(514 518)
(519 515)
(520 516)
(517 521)
(518 522)
(523 519)
(524 520)
(521 525)
(522 526)
(527 523)
(528 524)
(525 529)
(526 530)
(531 527)
(532 528)
(529 533)
(530 534)
(535 531)
(536 532)
(533 537)
(534 538)
(539 535)
(540 536)
(537 541)
(538 542)
(543 539)
(544 540)
(541 545)
(542 546)
(547 543)
(548 544)
(545 549)
(546 550)
(551 547)
(552 548)
(549 553)
(550 554)
(555 551)
(556 552)
(553 557)
(554 558)
(559 555)
(560 556)
(557 561)
(558 562)
(563 559)
(564 560)
(561 565)
(562 566)
(567 563)
(568 564)
(565 569)
(566 570)
(571 567)
(572 568)