FoamFile { version 2.0; format ascii; class dictionary; object transportProperties; }
transportModel HerschelBulkley;
nu [0 2 -1 0 0 0 0] 1.0;
HerschelBulkleyCoeffs { yieldStress [1 -1 -2 0 0 0 0] 200; n [0 0 0 0 0 0 0] 0.5; }
