/*--------------------------------*- C++ -*----------------------------------*\
| =========                 |                                                 |
| \\      /  F ield         | OpenFOAM: The Open Source CFD Toolbox           |
|  \\    /   O peration     | Version:                                        |
|   \\  /    A nd           | Website:  www.openfoam.com                      |
|    \\/     M anipulation  |                                                 |
\*---------------------------------------------------------------------------*/
FoamFile
{
    version     2.0;
    format      ascii;
    class       polyBoundaryMesh;
    location    "constant/polyMesh";
    object      boundary;
}
// * * * * * * * * * * * * * * * * * * * * * * * * * * * * * * * * * * * * * //

4
(
    inlet
    {
        type            patch;
        nFaces          400;
        startFace       636838;
    }
    outlet
    {
        type            patch;
        nFaces          400;
        startFace       637238;
    }
    walls
    {
        type            wall;
        nFaces          1920;
        startFace       637638;
    }
    screw
    {
        type            wall;
        inGroups        1(wall);
        nFaces          27478;
        startFace       639558;
    }
)

// ************************************************************************* //
